resultados/Relatorios/65barras/65barras-report.txt
April 12, 2024


relatorio do sistema 65barras

solucao do fluxo de potencia via metodo newton-raphson

opcoes de controle ativadas: QLIMs 

opcoes de relatorio ativadas: RBAR 



vv relatorio de convergencia vv

       |  FREQ  |  ERROR  | BARRA |  ERROR  | BARRA |  ERROR  | BARRA |
| ITER |    Hz  |     MW  |   NUM |   MVAr  |   NUM |   CTRL  |   NUM |
-----------------------------------------------------------------------
|  1   | 60.000 | 3985.906 | 1060  | 1366.752 |  48   |  0.000  |  18   |
|  2   | 60.000 | 1010.149 |  104  | 1183.264 |  933  | 853.580 |  48   |
|  3   | 60.000 | 107.767 |  898  | 227.333 |  904  | 28.210  |  210  |
|  4   | 60.000 | 132.817 | 1060  | 88.862  |  904  |  0.000  |  18   |
|  5   | 60.000 |  5.270  | 1060  |  1.430  |  995  |  0.000  |  102  |
-----------------------------------------------------------------------

 * * * * SISTEMA CONVERGENTE * * * * 

       |  FREQ  |  ERROR  | BARRA |  ERROR  | BARRA |  ERROR  | BARRA |
| ITER |    Hz  |     MW  |   NUM |   MVAr  |   NUM |   CTRL  |   NUM |
-----------------------------------------------------------------------
|  5   | 60.000 |  0.018  | 1060  |  0.003  |  976  |  0.000  |  18   |
-----------------------------------------------------------------------



vv relatorio de barras vv area 1 vv

|          BARRA           |         TENSAO       |        GERACAO      |         CARGA       |   SHUNT  |
| NUM |     NOME     |  T  |    MOD    |    ANG   |    MW    |   MVAr   |    MW    |   MVAr   |    MVAr  |
----------------------------------------------------------------------------------------------------------
| 18  | ITUMBIAR-4GR |  1  |   1.000   |  +3.56   | 800.000  | -332.472 |  0.000   |  0.000   |  0.000   |
----------------------------------------------------------------------------------------------------------
| 20  | MARIMBON-5GR |  1  |   1.010   |  -1.29   | 900.000  | -253.138 |  0.000   |  0.000   |  0.000   |
----------------------------------------------------------------------------------------------------------
| 48  | IBIUNA---3CS |  1  |   1.000   |  -27.39  |  0.000   | -617.765 |  0.000   |  0.000   |  0.000   |
----------------------------------------------------------------------------------------------------------
| 100 | MARIMBON-500 |  0  |   1.048   |  -7.46   |  -0.000  |  -0.000  |  0.000   |  0.000   |  0.000   |
----------------------------------------------------------------------------------------------------------
| 101 | ARARAQUA-500 |  0  |   1.069   |  -18.92  |  -0.000  |  0.000   |  0.000   |  0.000   |  0.000   |
----------------------------------------------------------------------------------------------------------
| 102 | POCOS----500 |  0  |   1.068   |  -29.06  |  -0.000  |  0.000   |  0.000   |  0.000   |  0.000   |
----------------------------------------------------------------------------------------------------------
| 103 | CAMPINAS-500 |  0  |   1.063   |  -28.53  |  -0.000  |  0.000   |  0.000   |  0.000   |  0.000   |
----------------------------------------------------------------------------------------------------------
| 104 | C.PAULIS-500 |  0  |   1.053   |  -38.34  |  0.000   |  0.000   | 1200.000 | 150.000  |  0.000   |
----------------------------------------------------------------------------------------------------------
| 120 | P.CALDAS-345 |  0  |   1.061   |  -30.34  |  0.000   |  0.000   | 105.000  |  33.000  |  0.000   |
----------------------------------------------------------------------------------------------------------
| 122 | IBIUNA---500 |  0  |   1.059   |  -27.39  |  0.000   |  -0.000  | 200.000  |  38.000  |  0.000   |
----------------------------------------------------------------------------------------------------------

|          BARRA           |         TENSAO       |        GERACAO      |         CARGA       |   SHUNT  |
| NUM |     NOME     |  T  |    MOD    |    ANG   |    MW    |   MVAr   |    MW    |   MVAr   |    MVAr  |
----------------------------------------------------------------------------------------------------------
| 123 | CAMPINAS-345 |  0  |   1.020   |  -34.16  |  0.000   |  0.000   | 440.000  | 160.000  |  0.000   |
----------------------------------------------------------------------------------------------------------
| 210 | ITUMBIARA500 |  0  |   1.036   |  -0.87   |  -0.000  |  -0.000  |  0.000   |  0.000   |  0.000   |
----------------------------------------------------------------------------------------------------------
| 213 | MARIMBON-345 |  0  |   1.042   |  -8.38   |  0.000   |  0.000   |  75.000  |  25.000  |  0.000   |
----------------------------------------------------------------------------------------------------------
| 217 | ITUMBIARA345 |  0  |   1.032   |  -2.96   |  0.000   |  0.000   | 454.000  |  48.000  |  0.000   |
----------------------------------------------------------------------------------------------------------
| 233 | SAMAMBAI-500 |  0  |   1.009   |  -8.63   |  -0.000  |  0.000   |  0.000   |  0.000   |  0.000   |
----------------------------------------------------------------------------------------------------------
| 234 | SAMAMBAI-345 |  0  |   0.992   |  -11.35  |  0.000   |  -0.000  | 900.000  | 300.000  |  0.000   |
----------------------------------------------------------------------------------------------------------
| 300 | EMBORCAC-3GR |  1  |   1.000   |  +8.35   | 700.000  | -217.199 |  0.000   |  0.000   |  0.000   |
----------------------------------------------------------------------------------------------------------
| 301 | JAGUARA--3GR |  1  |   1.020   |  +8.32   | 250.000  | -85.268  |  0.000   |  0.000   |  0.000   |
----------------------------------------------------------------------------------------------------------
| 302 | N.PONTE--3GR |  1  |   1.010   |  +8.32   | 350.000  | -145.573 |  0.000   |  0.000   |  0.000   |
----------------------------------------------------------------------------------------------------------
| 303 | S.SIMAO--3GR |  1  |   1.010   |  +1.32   | 200.000  | -247.263 |  0.000   |  0.000   |  0.000   |
----------------------------------------------------------------------------------------------------------

|          BARRA           |         TENSAO       |        GERACAO      |         CARGA       |   SHUNT  |
| NUM |     NOME     |  T  |    MOD    |    ANG   |    MW    |   MVAr   |    MW    |   MVAr   |    MVAr  |
----------------------------------------------------------------------------------------------------------
| 320 | EMBORCAC-500 |  0  |   1.034   |  +3.08   |  -0.000  |  -0.000  |  0.000   |  0.000   |  0.000   |
----------------------------------------------------------------------------------------------------------
| 325 | JAGUARA--500 |  0  |   1.053   |  +3.64   |  0.000   |  -0.000  |  0.000   |  0.000   |  0.000   |
----------------------------------------------------------------------------------------------------------
| 326 | JAGUARA--345 |  0  |   1.045   |  +2.43   |  0.000   |  0.000   | 214.000  |  74.000  |  0.000   |
----------------------------------------------------------------------------------------------------------
| 360 | NPONTE---500 |  0  |   1.040   |  +4.62   |  0.000   |  0.000   |  0.000   |  0.000   |  0.000   |
----------------------------------------------------------------------------------------------------------
| 370 | SSIMAO---500 |  0  |   1.045   |  -0.21   |  -0.000  |  0.000   |  0.000   |  0.000   |  0.000   |
----------------------------------------------------------------------------------------------------------
| 500 | A.VERMEL-4GR |  1  |   1.020   |  +2.15   | 800.000  | -60.387  |  0.000   |  0.000   |  0.000   |
----------------------------------------------------------------------------------------------------------
| 535 | AVERMELHA500 |  0  |   1.029   |  -2.33   |  -0.000  |  0.000   |  0.000   |  0.000   |  0.000   |
----------------------------------------------------------------------------------------------------------
| 536 | AVERMELH-440 |  0  |   1.003   |  -7.86   |  0.000   |  0.000   | 700.000  | 150.000  |  0.000   |
----------------------------------------------------------------------------------------------------------
| 1503 | ITAJUBA--500 |  0  |   1.059   |  -35.86  |  -0.000  |  0.000   |  0.000   |  0.000   |  0.000   |
----------------------------------------------------------------------------------------------------------
| 1504 | ITAJUBA--138 |  0  |   1.056   |  -38.74  |  0.000   |  0.000   | 110.000  |  43.000  |  0.000   |
----------------------------------------------------------------------------------------------------------



vv relatorio de barras vv area 2 vv

|          BARRA           |         TENSAO       |        GERACAO      |         CARGA       |   SHUNT  |
| NUM |     NOME     |  T  |    MOD    |    ANG   |    MW    |   MVAr   |    MW    |   MVAr   |    MVAr  |
----------------------------------------------------------------------------------------------------------
| 800 | GBMUNHOZ-3GR |  2  |   1.030   |  +0.00   | 1049.313 |  5.283   |  0.000   |  0.000   |  0.000   |
----------------------------------------------------------------------------------------------------------
| 808 | SCAXIAS--4GR |  1  |   1.030   |  +13.79  | 1150.000 |  46.175  |  0.000   |  0.000   |  0.000   |
----------------------------------------------------------------------------------------------------------

|          BARRA           |         TENSAO       |        GERACAO      |         CARGA       |   SHUNT  |
| NUM |     NOME     |  T  |    MOD    |    ANG   |    MW    |   MVAr   |    MW    |   MVAr   |    MVAr  |
----------------------------------------------------------------------------------------------------------
| 810 | SSEGREDO-4GR |  1  |   1.030   |  +6.57   | 1200.000 | -157.415 |  0.000   |  0.000   |  0.000   |
----------------------------------------------------------------------------------------------------------
| 814 | BATEIAS--230 |  0  |   1.000   |  -24.79  |  0.000   |  0.000   | 735.400  | 191.000  |  0.000   |
----------------------------------------------------------------------------------------------------------
| 824 | GBMUNHOZ-500 |  0  |   1.061   |  -6.32   |  -0.000  |  0.000   |  0.000   |  0.000   |  0.000   |
----------------------------------------------------------------------------------------------------------
| 834 | S.MATEUS-230 |  0  |   0.995   |  -16.94  |  -0.000  |  0.000   |  13.400  |  4.200   |  0.000   |
----------------------------------------------------------------------------------------------------------
| 839 | CASCAVEL-230 |  0  |   0.999   |  +4.23   |  -0.000  |  -0.000  |  0.000   |  0.000   |  0.000   |
----------------------------------------------------------------------------------------------------------
| 840 | CASCAVEL-138 |  0  |   0.986   |  +1.24   |  0.000   |  0.000   | 159.000  |  36.000  |  0.000   |
----------------------------------------------------------------------------------------------------------
| 848 | FCHOPIM--138 |  0  |   1.015   |  +5.08   |  0.000   |  0.000   |  94.000  |  18.000  |  0.000   |
----------------------------------------------------------------------------------------------------------
| 856 | SEGREDO--500 |  0  |   1.053   |  -0.10   |  -0.000  |  0.000   |  0.000   |  0.000   |  0.000   |
----------------------------------------------------------------------------------------------------------
| 895 | BATEIAS--500 |  0  |   1.065   |  -22.63  |  -0.000  |  0.000   |  0.000   |  0.000   |  0.000   |
----------------------------------------------------------------------------------------------------------
| 896 | CASCAVELO500 |  0  |   1.049   |  +6.23   |  0.000   |  0.000   |  0.000   |  0.000   |  0.000   |
----------------------------------------------------------------------------------------------------------

|          BARRA           |         TENSAO       |        GERACAO      |         CARGA       |   SHUNT  |
| NUM |     NOME     |  T  |    MOD    |    ANG   |    MW    |   MVAr   |    MW    |   MVAr   |    MVAr  |
----------------------------------------------------------------------------------------------------------
| 897 | SCAXIAS--500 |  0  |   1.056   |  +7.46   |  -0.000  |  -0.000  |  0.000   |  0.000   |  0.000   |
----------------------------------------------------------------------------------------------------------
| 898 | FCHOPIM--230 |  0  |   1.028   |  +8.37   |  -0.000  |  -0.000  |  0.000   |  0.000   |  0.000   |
----------------------------------------------------------------------------------------------------------
| 904 | ITA------3GR |  1  |   1.040   |  -3.18   | 700.000  | -229.397 |  0.000   |  0.000   |  0.000   |
----------------------------------------------------------------------------------------------------------
| 915 | MACHADIN-2GR |  1  |   1.030   |  -3.63   | 600.000  | -204.543 |  0.000   |  0.000   |  0.000   |
----------------------------------------------------------------------------------------------------------
| 919 | SOSOR1A4-4GR |  1  |   1.030   |  +15.87  | 700.000  | 155.378  |  0.000   |  0.000   |  0.000   |
----------------------------------------------------------------------------------------------------------
| 925 | SSANTIAG-3GR |  1  |   1.030   |  +10.27  | 950.000  |  13.177  |  0.000   |  0.000   |  0.000   |
----------------------------------------------------------------------------------------------------------
| 933 | AREIA----500 |  0  |   1.061   |  -6.66   |  -0.000  |  0.000   |  0.000   |  0.000   |  0.000   |
----------------------------------------------------------------------------------------------------------
| 934 | AREIA----230 |  0  |   0.996   |  -6.79   |  -0.000  |  0.000   | 237.000  |  59.000  |  0.000   |
----------------------------------------------------------------------------------------------------------
| 938 | BLUMENAU-500 |  0  |   1.071   |  -25.05  |  -0.000  |  0.000   |  0.000   |  0.000   |  0.000   |
----------------------------------------------------------------------------------------------------------
| 939 | BLUMENAU-230 |  0  |   1.000   |  -27.33  |  0.000   |  0.000   | 1149.000 |  53.060  |  0.000   |
----------------------------------------------------------------------------------------------------------

|          BARRA           |         TENSAO       |        GERACAO      |         CARGA       |   SHUNT  |
| NUM |     NOME     |  T  |    MOD    |    ANG   |    MW    |   MVAr   |    MW    |   MVAr   |    MVAr  |
----------------------------------------------------------------------------------------------------------
| 955 | CNOVOS---500 |  0  |   1.086   |  -12.67  |  -0.000  |  0.000   |  0.000   |  0.000   |  0.000   |
----------------------------------------------------------------------------------------------------------
| 959 | CURITIBA-500 |  0  |   1.057   |  -22.55  |  -0.000  |  0.000   |  0.000   |  0.000   | 111.678  |
----------------------------------------------------------------------------------------------------------
| 960 | CURITIBA-230 |  0  |   1.002   |  -24.99  |  0.000   |  0.000   | 844.700  | 469.100  |  0.000   |
----------------------------------------------------------------------------------------------------------
| 964 | CAXIAS---500 |  0  |   1.073   |  -19.59  |  -0.000  |  0.000   |  0.000   |  0.000   |  0.000   |
----------------------------------------------------------------------------------------------------------
| 965 | CAXIAS---230 |  0  |   0.998   |  -21.90  |  0.000   |  0.000   | 755.600  |  56.240  |  0.000   |
----------------------------------------------------------------------------------------------------------
| 976 | GRAVATAI-500 |  0  |   1.050   |  -22.09  |  -0.000  |  0.000   |  0.000   |  0.000   |  0.000   |
----------------------------------------------------------------------------------------------------------
| 995 | ITA------500 |  0  |   1.078   |  -8.70   |  -0.000  |  0.000   |  0.000   |  0.000   |  0.000   |
----------------------------------------------------------------------------------------------------------
| 1015 | JOINVILLE230 |  0  |   1.003   |  -27.23  |  0.000   |  -0.000  |  70.000  |  2.000   |  0.000   |
----------------------------------------------------------------------------------------------------------
| 1030 | MACHADIN-500 |  0  |   1.078   |  -10.04  |  -0.000  |  0.000   |  0.000   |  0.000   |  0.000   |
----------------------------------------------------------------------------------------------------------
| 1047 | SOSORIO--230 |  0  |   1.035   |  +9.31   |  -0.000  |  0.000   |  0.000   |  0.000   |  0.000   |
----------------------------------------------------------------------------------------------------------

|          BARRA           |         TENSAO       |        GERACAO      |         CARGA       |   SHUNT  |
| NUM |     NOME     |  T  |    MOD    |    ANG   |    MW    |   MVAr   |    MW    |   MVAr   |    MVAr  |
----------------------------------------------------------------------------------------------------------
| 1060 | SSANTIAG-500 |  0  |   1.061   |  +2.53   |  -0.000  |  0.000   |  0.000   |  0.000   |  0.000   |
----------------------------------------------------------------------------------------------------------
| 1210 | GRAVATAI-230 |  0  |   0.998   |  -24.65  |  0.000   |  0.000   | 1228.000 | 425.000  |  0.000   |
----------------------------------------------------------------------------------------------------------
| 2458 | CASCAVEL-230 |  0  |   0.998   |  +4.01   |  0.000   |  0.000   | 403.000  | 126.000  |  0.000   |
----------------------------------------------------------------------------------------------------------



fim do relatorio do sistema 65barras